ieee_feeder/ieee37LineCodes.dss
! These are for the 37-node test feeder, all underground

New linecode.721 nphases=3 BaseFreq=60
!!!~ rmatrix = (0.0554906 | 0.0127467 0.0501597 | 0.00640446 0.0127467 0.0554906 )
!!!~ xmatrix = (0.0372331 | -0.00704588 0.0358645 | -0.00796424 -0.00704588 0.0372331 )
!!!~ cmatrix = (124.851 | 0 124.851 | 0 0 124.851 )
~ rmatrix = [0.055416667 | 0.012746212  0.050113636  | 0.006382576  0.012746212  0.055416667]
~ xmatrix = [0.037367424 | -0.006969697  0.035984848 | -0.007897727  -0.006969697  0.037367424]
~ cmatrix = [80.27484728 | 0  80.27484728            | 0  0  80.27484728]
New linecode.722 nphases=3 BaseFreq=60
!!!~ rmatrix = (0.0902251 | 0.0309584 0.0851482 | 0.0234946 0.0309584 0.0902251 )
!!!~ xmatrix = (0.055991 | -0.00646552 0.0504025 | -0.0117669 -0.00646552 0.055991 )
!!!~ cmatrix = (93.4896 | 0 93.4896 | 0 0 93.4896 )
~ rmatrix = [0.089981061 | 0.030852273  0.085        | 0.023371212  0.030852273  0.089981061]
~ xmatrix = [0.056306818 | -0.006174242  0.050719697 | -0.011496212  -0.006174242  0.056306818]
~ cmatrix = [64.2184109 | 0  64.2184109              | 0  0  64.2184109]
New linecode.723 nphases=3 BaseFreq=60
!!!~ rmatrix = (0.247572 | 0.0947678 0.249104 | 0.0893782 0.0947678 0.247572 )
!!!~ xmatrix = (0.126339 | 0.0390337 0.118816 | 0.0279344 0.0390337 0.126339 )
!!!~ cmatrix = (58.108 | 0 58.108 | 0 0 58.108 )
~ rmatrix = [0.245 | 0.092253788  0.246628788 | 0.086837121  0.092253788  0.245]
~ xmatrix = [0.127140152 | 0.039981061  0.119810606 | 0.028806818  0.039981061  0.127140152]
~ cmatrix = [37.5977112 | 0  37.5977112 | 0  0  37.5977112]
New linecode.724 nphases=3 BaseFreq=60
!!!~ rmatrix = (0.399883 | 0.101765 0.402011 | 0.0965199 0.101765 0.399883 )
!!!~ xmatrix = (0.146325 | 0.0510963 0.139305 | 0.0395402 0.0510963 0.146325 )
!!!~ cmatrix = (46.9685 | 0 46.9685 | 0 0 46.9685 )
~ rmatrix = [0.396818182 | 0.098560606  0.399015152 | 0.093295455  0.098560606  0.396818182]
~ xmatrix = [0.146931818 | 0.051856061  0.140113636 | 0.040208333  0.051856061  0.146931818]
~ cmatrix = [30.26701029 | 0  30.26701029 | 0  0  30.26701029]

